@<TRIPOS>MOLECULE
./4znn.not_wat.pdb
 66 66 0 0 0
SMALL
GASTEIGER

@<TRIPOS>ATOM
      1  N         -6.8150   -0.6680    1.6070 N.3    47  GLY47      -0.1210
      2  CA        -5.7140    0.0020    2.3730 C.3    47  GLY47       0.1956
      3  C         -4.3570   -0.6730    2.5880 C.2    47  GLY47       0.2612
      4  O         -4.2120   -1.8700    2.4920 O.2    47  GLY47      -0.2717
      5  N         -3.3810    0.1250    2.9530 N.am   48  VAL48      -0.1965
      6  CA        -2.0620   -0.3900    3.2740 C.3    48  VAL48       0.1727
      7  C         -1.6360    0.1750    4.6000 C.2    48  VAL48       0.2616
      8  O         -1.7440    1.3560    4.8620 O.2    48  VAL48      -0.2715
      9  CB        -0.9930   -0.0450    2.1970 C.3    48  VAL48       0.0290
     10  CG1        0.3900   -0.4880    2.6400 C.3    48  VAL48       0.0023
     11  CG2       -1.3780   -0.6620    0.8970 C.3    48  VAL48       0.0023
     12  N         -1.0950   -0.7000    5.4150 N.am   49  VAL49      -0.1963
     13  CA        -0.5720   -0.3110    6.6690 C.3    49  VAL49       0.1727
     14  C          0.8400   -0.8540    6.7920 C.2    49  VAL49       0.2616
     15  O          1.0270   -2.0220    6.7200 O.2    49  VAL49      -0.2715
     16  CB        -1.4110   -0.9130    7.7970 C.3    49  VAL49       0.0290
     17  CG1       -0.7270   -0.6450    9.1230 C.3    49  VAL49       0.0023
     18  CG2       -2.8000   -0.3490    7.7890 C.3    49  VAL49       0.0023
     19  N          1.8100    0.0020    7.0230 N.am   50  HIS50      -0.1959
     20  CA         3.1910   -0.4290    7.1010 C.3    50  HIS50       0.1784
     21  C          3.9110    0.2580    8.2290 C.2    50  HIS50       0.2621
     22  O          4.0640    1.4780    8.2280 O.2    50  HIS50      -0.2715
     23  CB         3.8710   -0.1030    5.7480 C.3    50  HIS50       0.0745
     24  CG         5.2470   -0.6430    5.5810 C.2    50  HIS50       0.0653
     25  ND1        5.8610   -0.6890    4.3530 N.2    50  HIS50      -0.2310
     26  CD2        6.1080   -1.1970    6.4480 C.3    50  HIS50       0.1683
     27  CE1        7.0590   -1.2270    4.4820 C.2    50  HIS50       0.1939
     28  NE2        7.2390   -1.5230    5.7510 N.2    50  HIS50      -0.2440
     29  N          4.3640   -0.5270    9.1890 N.am   51  GLY51      -0.1940
     30  CA         5.0670    0.0200   10.3260 C.3    51  GLY51       0.2014
     31  C          4.2710    0.8170   11.2960 C.2    51  GLY51       0.2639
     32  O          4.3590    2.0330   11.3670 O.2    51  GLY51      -0.2714
     33  N          3.4920    0.1040   12.0730 N.am   52  VAL52      -0.1963
     34  CA         2.5850    0.6770   13.0850 C.3    52  VAL52       0.1727
     35  C          3.0060    0.0470   14.3610 C.2    52  VAL52       0.2617
     36  O          2.9580   -1.1690   14.5150 O.2    52  VAL52      -0.2715
     37  CB         1.1270    0.3300   12.8270 C.3    52  VAL52       0.0290
     38  CG1        0.2480    0.6750   14.0380 C.3    52  VAL52       0.0023
     39  CG2        0.6740    1.0470   11.5960 C.3    52  VAL52       0.0023
     40  N          3.4810    0.8870   15.2620 N.am   53  THR53      -0.1937
     41  CA         4.1630    0.3920   16.4420 C.3    53  THR53       0.2028
     42  C          3.4240    0.9650   17.6310 C.2    53  THR53       0.2643
     43  O          3.1360    2.1100   17.6120 O.2    53  THR53      -0.2714
     44  CB         5.6880    0.7500   16.3890 C.3    53  THR53       0.1808
     45  OG1        6.2640    0.1300   15.2360 O.3    53  THR53      -0.2208
     46  CG2        6.4200    0.2100   17.5690 C.3    53  THR53       0.0379
     47  N          3.1730    0.1290   18.6470 N.am   54  THR54      -0.1936
     48  CA         2.5590    0.5160   19.9030 C.3    54  THR54       0.2028
     49  C          3.3500   -0.1220   21.0140 C.2    54  THR54       0.2642
     50  O          3.3660   -1.3390   21.1400 O.2    54  THR54      -0.2714
     51  CB         1.1380   -0.0210   19.9830 C.3    54  THR54       0.1808
     52  OG1        0.3930    0.3940   18.8240 O.3    54  THR54      -0.2208
     53  CG2        0.4860    0.5010   21.1670 C.3    54  THR54       0.0379
     54  N          4.0670    0.6880   21.7680 N.am   55  VAL55      -0.1963
     55  CA         4.8880    0.2050   22.8510 C.3    55  VAL55       0.1727
     56  C          4.3500    0.7690   24.1740 C.2    55  VAL55       0.2617
     57  O          4.1610    1.9810   24.2690 O.2    55  VAL55      -0.2715
     58  CB         6.3620    0.6140   22.6520 C.3    55  VAL55       0.0290
     59  CG1        7.1520    0.2970   23.8740 C.3    55  VAL55       0.0023
     60  CG2        6.9530   -0.1210   21.4550 C.3    55  VAL55       0.0023
     61  N          4.0650   -0.1200   25.1510 N.am   56  ALA56      -0.1942
     62  CA         3.7200    0.3130   26.5150 C.3    56  ALA56       0.1979
     63  C          4.9410    0.1400   27.4200 C.2    56  ALA56       0.3842
     64  O          5.7140   -0.8090   27.2870 O.co2  56  ALA56      -0.2437
     65  CB         2.4990   -0.4220   27.0620 C.3    56  ALA56       0.0356
     66  OXT        5.2500    0.9550   28.2940 O.co2  56  ALA56      -0.2437
@<TRIPOS>BOND
     1    11     9    1
     2     1     2    1
     3     9    10    1
     4     9     6    1
     5     2     3    1
     6     4     3    2
     7     3     5   am
     8     5     6    1
     9     6     7    1
    10    25    27    1
    11    25    24    2
    12    27    28    2
    13     7     8    2
    14     7    12   am
    15    12    13    1
    16    24    23    1
    17    24    26    1
    18    23    20    1
    19    28    26    1
    20    13    14    1
    21    13    16    1
    22    15    14    2
    23    14    19   am
    24    19    20    1
    25    20    21    1
    26    18    16    1
    27    16    17    1
    28    22    21    2
    29    21    29   am
    30    29    30    1
    31    30    31    1
    32    31    32    2
    33    31    33   am
    34    39    37    1
    35    33    34    1
    36    37    34    1
    37    37    38    1
    38    34    35    1
    39    35    36    2
    40    35    40   am
    41    45    44    1
    42    40    41    1
    43    44    41    1
    44    44    46    1
    45    41    42    1
    46    43    42    2
    47    42    47   am
    48    47    48    1
    49    52    51    1
    50    48    51    1
    51    48    49    1
    52    51    53    1
    53    49    50    2
    54    49    54   am
    55    60    58    1
    56    54    55    1
    57    58    55    1
    58    58    59    1
    59    55    56    1
    60    56    57    2
    61    56    61   am
    62    61    62    1
    63    62    65    1
    64    62    63    1
    65    64    63   ar
    66    63    66   ar
